Global frequency set at 1000000000000 ticks per second
[CPU] DataRequestor ID is 6
[FedexC]Init FedexCentral Station xD
[FedexC]Data Requestor ID: 7
gem5 Simulator System.  https://www.gem5.org
gem5 is copyrighted software; use the --copyright option for details.

gem5 version 22.0.0.1
gem5 compiled May  5 2024 01:07:10
gem5 started May  5 2024 03:26:46
gem5 executing on dec173fc1a1c, pid 2335
command line: ./build/RISCV/gem5.debug configs/fedex_config.py -c benchmarks/RISCV/memcpy

Trying to run program:  benchmarks/RISCV/memcpy
Setting Program to run:  benchmarks/RISCV/memcpy
FedexMemcpyInitiateAcc

Processing Command xD
FedexCentral Received addrSrc: 7ffffffffffffef8
FedexCentral Received addrDest: 7ffffffffffffee8
FedexCentral Received sizeByte: 14
remainSizeByte 14
src2AlignSize 8
req_size 8
[+] Read Translation request sent 7ffffffffffffef8 8
Finish Translation xD
Send to Memory xD
remainSizeByte 6
src2AlignSize 64
req_size 6
[+] Read Translation request sent 7fffffffffffff00 6
Finish Translation xD
Send to Memory xD
Received pkt from Memory
[+] Received read response from memory:
Address: 0xcef8
Size: 8 bytes
Data: 48 65 6c 6c 6f 2c 20 52 

remainSizeByte_write 14
dst2AlignSize 24
static_cast<uint64_t>(64) 64
write_size 8
48 65 6c 6c 6f 2c 20 52 [+] Write Translation request sent 7ffffffffffffee8 8
Finish Translation xD
Send to Memory xD
sendToWriteTranslate call
Received pkt from Memory
[+] Received read response from memory:
Address: 0xcf00
Size: 6 bytes
Data: 49 53 43 56 21 0 

remainSizeByte_write 6
dst2AlignSize 16
static_cast<uint64_t>(64) 64
write_size 6
49 53 43 56 21 0 [+] Write Translation request sent 7ffffffffffffef0 6
Finish Translation xD
Send to Memory xD
sendToWriteTranslate call
Retry Failed Write xD
