Global frequency set at 1000000000000 ticks per second
[CPU] DataRequestor ID is 6
[FedexC]Init FedexCentral Station xD
[FedexC]Data Requestor ID: 7
gem5 Simulator System.  https://www.gem5.org
gem5 is copyrighted software; use the --copyright option for details.

gem5 version 22.0.0.1
gem5 compiled May  5 2024 08:11:21
gem5 started May  5 2024 08:18:35
gem5 executing on dec173fc1a1c, pid 3424
command line: ./build/RISCV/gem5.debug configs/fedex_config.py -c benchmarks/RISCV/memcpy

Trying to run program:  benchmarks/RISCV/memcpy
Setting Program to run:  benchmarks/RISCV/memcpy
FedexMemcpyInitiateAcc

Processing Command xD
FedexCentral Received addrSrc: 7ffffffffffffbe8
FedexCentral Received addrDest: 7ffffffffffff8c8
FedexCentral Received sizeByte: 796

remainSizeByte 796
[-] Read Translation request sent 7ffffffffffffbe8 24
[-] clockEdge is 2271000

Finish Translation xD
Send to Memory xD
clockEdge != lastMemReqTick
lastMemReqTick 0
clockEdge is 2271000
[-] Read Request sent

remainSizeByte 772
[-] Read Translation request sent 7ffffffffffffc00 64
[-] clockEdge is 2272000

Finish Translation xD
Send to Memory xD
clockEdge != lastMemReqTick
lastMemReqTick 2271000
clockEdge is 2272000
[-] Read Request sent

Received pkt from Memory
[-] Received read response from memory:
[-] clockEdge is 2273000
Address: 0xcbe8


remainSizeByte 708
[-] Read Translation request sent 7ffffffffffffc40 64
[-] clockEdge is 2273000

Finish Translation xD
Send to Memory xD
clockEdge != lastMemReqTick
lastMemReqTick 2272000
clockEdge is 2273000
[-] Read Request sent

Received pkt from Memory
[-] Received read response from memory:
[-] clockEdge is 2274000
Address: 0xcc00


remainSizeByte 644
[-] Read Translation request sent 7ffffffffffffc80 64
[-] clockEdge is 2274000

Finish Translation xD
Send to Memory xD
clockEdge != lastMemReqTick
lastMemReqTick 2273000
clockEdge is 2274000
[-] Read Request sent

remainSizeByte 580
[-] Read Translation request sent 7ffffffffffffcc0 64
[-] clockEdge is 2275000

Finish Translation xD
Send to Memory xD
clockEdge != lastMemReqTick
lastMemReqTick 2274000
clockEdge is 2275000
[-] Read Request sent

Received pkt from Memory
[-] Received read response from memory:
[-] clockEdge is 2276000
Address: 0xcc40


remainSizeByte 516
[-] Read Translation request sent 7ffffffffffffd00 64
[-] clockEdge is 2276000

Finish Translation xD
Send to Memory xD
clockEdge != lastMemReqTick
lastMemReqTick 2275000
clockEdge is 2276000
[-] Read Request sent

Received pkt from Memory
[-] Received read response from memory:
[-] clockEdge is 2277000
Address: 0xcc80


remainSizeByte 452
[-] Read Translation request sent 7ffffffffffffd40 64
[-] clockEdge is 2277000

Finish Translation xD
Send to Memory xD
clockEdge != lastMemReqTick
lastMemReqTick 2276000
clockEdge is 2277000
[-] Read Request sent

remainSizeByte 388
[-] Read Translation request sent 7ffffffffffffd80 64
[-] clockEdge is 2278000

Finish Translation xD
Send to Memory xD
clockEdge != lastMemReqTick
lastMemReqTick 2277000
clockEdge is 2278000
[-] Read Request sent

Received pkt from Memory
[-] Received read response from memory:
[-] clockEdge is 2279000
Address: 0xccc0


remainSizeByte 324
[-] Read Translation request sent 7ffffffffffffdc0 64
[-] clockEdge is 2279000

Finish Translation xD
Send to Memory xD
clockEdge != lastMemReqTick
lastMemReqTick 2278000
clockEdge is 2279000
[-] Read Request sent

Received pkt from Memory
[-] Received read response from memory:
[-] clockEdge is 2280000
Address: 0xcd00


remainSizeByte 260
[-] Read Translation request sent 7ffffffffffffe00 64
[-] clockEdge is 2280000

Finish Translation xD
Send to Memory xD
clockEdge != lastMemReqTick
lastMemReqTick 2279000
clockEdge is 2280000
[-] Read Request sent

remainSizeByte 196
[-] Read Translation request sent 7ffffffffffffe40 64
[-] clockEdge is 2281000

Finish Translation xD
Send to Memory xD
clockEdge != lastMemReqTick
lastMemReqTick 2280000
clockEdge is 2281000
[-] Read Request sent

Received pkt from Memory
[-] Received read response from memory:
[-] clockEdge is 2282000
Address: 0xcd40


remainSizeByte 132
[-] Read Translation request sent 7ffffffffffffe80 64
[-] clockEdge is 2282000

Finish Translation xD
Send to Memory xD
clockEdge != lastMemReqTick
lastMemReqTick 2281000
clockEdge is 2282000
[-] Read Request sent

Received pkt from Memory
[-] Received read response from memory:
[-] clockEdge is 2283000
Address: 0xcd80


remainSizeByte 68
[-] Read Translation request sent 7ffffffffffffec0 64
[-] clockEdge is 2283000

Finish Translation xD
Send to Memory xD
clockEdge != lastMemReqTick
lastMemReqTick 2282000
clockEdge is 2283000
[-] Read Request sent

remainSizeByte 4
[-] Read Translation request sent 7fffffffffffff00 4
[-] clockEdge is 2284000

Finish Translation xD
Send to Memory xD
clockEdge != lastMemReqTick
lastMemReqTick 2283000
clockEdge is 2284000
[-] Read Request sent

Received pkt from Memory
[-] Received read response from memory:
[-] clockEdge is 2285000
Address: 0xcdc0


Received pkt from Memory
[-] Received read response from memory:
[-] clockEdge is 2286000
Address: 0xce00


Received pkt from Memory
[-] Received read response from memory:
[-] clockEdge is 2288000
Address: 0xce40


Received pkt from Memory
[-] Received read response from memory:
[-] clockEdge is 2289000
Address: 0xce80


Received pkt from Memory
[-] Received read response from memory:
[-] clockEdge is 2291000
Address: 0xcec0


Received pkt from Memory
[-] Received read response from memory:
[-] clockEdge is 2292000
Address: 0xcf00


[[FAILED]]
